dados_barras.csv
ID_Barra,Nome_Barra,Tipo,Tensao_Mag_pu,Angulo_graus,Base_kV
10,ANGRA1UNE001,2,0.9890,-27.0000,992.0
11,ANGRA2UNE001,2,0.9820,-26.0000,992.0
12,LCBARRUHE006,2,0.9750,-17.0000,992.0
13,LCBARRSIN000,2,1.0050,-23.0000,990.0
14,FUNIL-UHE003,2,0.9610,-31.0000,992.0
16,FURNASUHE007,2,0.9750,-22.0000,992.0
17,FURNASSIN000,2,1.0050,-29.0000,990.0
18,ITUMBIUHE006,2,0.9660,-1.7000,992.0
19,ITUMBISIN000,2,1.0010,-11.0000,990.0
20,MARIMBUHE008,2,1.0250,-7.8000,992.0
21,MANSO-UHE003,2,0.9860,-8.2000,992.0
22,M.MORAUHE006,2,1.0010,-17.0000,992.0
23,CBRAV-SIN000,2,1.0010,0.0430,990.0
24,M.MORBUHE004,2,0.9770,-18.0000,992.0
28,PCOLOMUHE004,2,1.0250,-12.0000,992.0
30,SCRU19UTE000,2,1.0030,-40.0000,992.0
31,SCRU31UT3001,2,1.0030,-40.0000,992.0
32,SCRU16UTE002,2,0.9930,-33.0000,992.0
35,CORUMBUHE003,2,0.9790,-4.1000,992.0
36,S.MESAUHE003,2,0.9730,-6.3000,992.0
37,S.MESASIN000,2,1.0040,-13.0000,990.0
38,GRAJA2SIN001,2,1.0070,-44.0000,13.8
41,VITOR2SIN001,2,1.0090,-43.0000,990.0
44,GRAJA1SIN001,2,1.0110,-44.0000,13.8
47,VITOR1SIN001,2,1.0090,-43.0000,990.0
48,IBIUNASIN004,2,0.9790,-40.0000,20.0
50,TPRETOSIN001,2,0.9880,-42.0000,20.0
52,GNA-I--RJ345,1,1.0160,-42.0000,345.0
53,GNA1G-UTE000,2,0.9670,-42.0000,20.0
54,GNA1V-UTE000,2,0.9670,-42.0000,20.0
56,IVAIP3-PR069,1,0.9660,-18.0000,69.0
57,IVAIP2-PR069,1,0.9110,-18.0000,69.0
58,IVAIP2-PR000,1,1.0290,-18.0000,991.0
59,IVAIP3-PR000,1,1.0240,-18.0000,991.0
60,F.IGUA-PR765,1,0.9980,-7.2000,765.0
61,FOZ60--PR500,1,1.0440,-4.4000,500.0
62,IV-FZ1CAP765,1,1.0230,-18.0000,765.0
63,IV-FZ2CAP765,1,1.0280,-25.0000,765.0
64,IV-FZ3CAP765,1,1.0250,-25.0000,765.0
65,IVAIPO-PR765,1,1.0230,-18.0000,765.0
66,IVAIPA-PR525,1,1.0110,-18.0000,525.0
67,IVAIP1-PR069,1,0.9090,-18.0000,69.0
68,IVAIP1-PR000,1,1.0290,-18.0000,991.0
69,IV-IT1CAP765,1,1.0230,-18.0000,765.0
70,IV-IT2CAP765,1,1.0300,-10.0000,765.0
71,IV-IT3CAP765,1,1.0300,-10.0000,765.0
72,ITABER-SP765,1,1.0160,-26.0000,765.0
73,IT-TP1CAP765,1,1.0160,-26.0000,765.0
74,IT-TP2CAP765,1,0.9930,-16.0000,765.0
75,IT-TP3CAP765,1,0.9890,-17.0000,765.0
76,TPRETO-SP765,1,0.9760,-35.0000,765.0
77,TPRETO-SP500,1,1.0530,-35.0000,500.0
78,TPRETO-SP345,1,1.0090,-41.0000,345.0
79,TPRETO-SP069,1,0.9260,-35.0000,69.0
80,TPRET3-SP000,1,0.9850,-35.0000,991.0
81,TPRET4-SP000,1,0.9700,-42.0000,991.0
82,TPRET2-SP345,1,1.0100,-41.0000,345.0
84,RESEN2-RJ138,1,1.0020,-37.0000,138.0
85,FOZ50--PR500,1,1.0200,-7.9000,500.0
86,IBIUNA-SP345,1,1.0300,-40.0000,345.0
87,RESEND-RJ500,1,1.0650,-36.0000,500.0
90,VIANA--ES345,1,0.9990,-41.0000,345.0
91,VIANT1-ES013,1,0.9930,-43.0000,13.8
92,SB-SM1CAP500,1,1.0440,-20.0000,500.0
93,SB-SM2CAP500,1,1.0560,-20.0000,500.0
94,SB-SM3CAP500,1,1.0590,-20.0000,500.0
95,VIANT2-ES013,1,0.9930,-43.0000,13.8
96,VIANT3-ES013,1,0.9930,-43.0000,13.8
99,AS-AR1-SP500,1,1.0630,-18.0000,500.0
100,MARIMB-MG500,1,1.0600,-14.0000,500.0
101,ARARAQ-SP500,1,1.0580,-24.0000,500.0
102,P.CALD-MG500,1,1.0540,-30.0000,500.0
103,CAMPIN-SP500,1,1.0530,-33.0000,500.0
104,C.PAUL-SP500,1,1.0640,-35.0000,500.0
105,ANGRA--RJ500,1,1.0580,-34.0000,500.0
106,ADRIAN-RJ500,1,1.0580,-39.0000,500.0
107,GRAJAU-RJ500,1,1.0580,-41.0000,500.0
108,S.JOSE-RJ500,1,1.0590,-40.0000,500.0
110,GR1T52-RJ000,1,1.0090,-44.0000,991.0
112,BA-IB1-PR500,1,1.0950,-28.0000,500.0
113,BA-IB2-PR500,1,1.0950,-28.0000,500.0
114,BA-IT1-PR500,1,1.0950,-28.0000,500.0
115,BA-IT1CAP500,1,1.0250,-23.0000,500.0
116,IMBTAP-RJ138,1,1.0250,-47.0000,138.0
117,CAMPO2-RJ500,1,1.0470,-17.0000,500.0
118,BANDT4-GO000,1,0.9600,-22.0000,991.0
119,BANDT4-GO013,1,0.9600,-22.0000,13.8
120,P.CALD-MG345,1,1.0000,-34.0000,345.0
121,PCAT51-MG000,1,0.9820,-35.0000,991.0
122,IBIUNA-SP500,1,1.0860,-35.0000,500.0
123,CAMPIN-SP345,1,0.9900,-37.0000,345.0
124,CAMP51-SP000,1,0.9960,-38.0000,991.0
125,IB-BA1CAP500,1,1.0560,-42.0000,500.0
126,GUARUL-SP345,1,0.9980,-44.0000,345.0
127,MO-RL1-SP345,1,0.9980,-42.0000,345.0
128,MO-RL2-SP345,1,0.9980,-42.0000,345.0
129,MOGI---SP345,1,0.9940,-43.0000,345.0
130,IB-BA2CAP500,1,1.0560,-42.0000,500.0
131,M.MORA-MG345,1,1.0070,-24.0000,345.0
133,ADRT1A-RJ000,1,1.0010,-45.0000,991.0
134,LCBARR-SP345,1,1.0040,-23.0000,345.0
135,JACT1A-RJ000,1,0.9900,-45.0000,991.0
136,FURNAS-MG345,1,1.0050,-29.0000,345.0
137,JACT2A-RJ000,1,0.9900,-45.0000,991.0
138,ITUTIN-MG345,1,1.0130,-40.0000,345.0
139,ADRT51-RJ000,1,0.9890,-42.0000,991.0
140,ADRIAN-RJ345,1,1.0240,-42.0000,345.0
141,ADRT53-RJ000,1,0.9850,-43.0000,991.0
142,ADRT55-RJ000,1,0.9850,-43.0000,991.0
143,ADRT2B-RJ000,1,1.0010,-45.0000,991.0
144,JACARE-RJ345,1,1.0120,-43.0000,345.0
145,ADRT1B-RJ000,1,1.0010,-45.0000,991.0
146,ADRT2A-RJ000,1,1.0010,-45.0000,991.0
147,CAMPOS-RJ345,1,1.0130,-42.0000,345.0
148,CAMPO1-RJ000,1,0.9770,-45.0000,991.0
149,VITORI-ES345,1,0.9990,-43.0000,345.0
150,VITAT1-ES000,1,0.9960,-45.0000,991.0
152,VITAT2-ES000,1,0.9840,-45.0000,991.0
153,VITAT3-ES000,1,0.9830,-45.0000,991.0
154,VITAT2-ES013,1,0.9840,-45.0000,13.8
155,VITAT3-ES013,1,0.9830,-45.0000,13.8
156,VITAT4-ES013,4,0.9970,0.0000,13.8
158,VITAT4-ES000,1,1.0350,-45.0000,991.0
159,JA-R30-RJ013,1,0.9900,-45.0000,13.8
160,JB-R60-RJ013,1,0.9670,-45.0000,13.8
161,MO-FCE-SP230,1,0.9970,-44.0000,230.0
162,CAMAT1-SP000,1,0.9750,-39.0000,991.0
163,CAMPI1-SP013,1,0.9460,-39.0000,13.8
164,PCAT02-MG000,1,1.0360,-37.0000,991.0
165,P.CAL2-MG013,1,0.9740,-37.0000,13.8
166,JACT1B-RJ000,1,0.9910,-45.0000,991.0
167,JA-R60-RJ013,1,0.9900,-45.0000,13.8
169,SJOSE2-RJ138,1,1.0140,-44.0000,138.0
170,P.CALD-MG138,1,1.0360,-37.0000,138.0
171,CAMPI1-SP138,1,1.0080,-39.0000,138.0
172,IMBARE-RJ138,1,0.9980,-46.0000,138.0
173,ADRIAN-RJ138,1,1.0410,-45.0000,138.0
174,R.LEAO-RJ138,1,1.0310,-45.0000,138.0
175,CAMPOS-RJ138,1,1.0560,-45.0000,138.0
176,CAMP54-SP000,1,0.9940,-38.0000,991.0
177,VITOR1-ES138,1,1.0030,-45.0000,138.0
178,GRAJAU-RJ138,1,1.0020,-44.0000,138.0
179,GR2T54-RJ000,1,1.0090,-44.0000,991.0
180,JACARE-RJ138,1,1.0070,-45.0000,138.0
181,ANGDEF-RJ138,1,1.0000,-40.0000,138.0
182,FUNIL--RJ138,1,0.9990,-36.0000,138.0
183,C.PAUL-SP138,1,0.9970,-36.0000,138.0
184,S.CRUZ-RJ138,1,1.0030,-40.0000,138.0
185,ANGRA--RJ138,1,1.0050,-29.0000,138.0
186,CAMP54-SP013,1,0.9940,-38.0000,13.8
187,M.MORA-MG138,1,1.0300,-25.0000,138.0
189,BGERT1-DF000,1,1.0100,-25.0000,991.0
190,P.COL--MG138,1,1.0290,-18.0000,138.0
192,CAMPO1-RJ013,1,0.9770,-45.0000,13.8
194,ADRT55-RJ013,1,0.9020,-43.0000,13.8
195,ADRT53-RJ013,1,0.9030,-43.0000,13.8
196,CAMP51-SP013,1,0.9140,-38.0000,13.8
197,ADRT51-RJ013,1,0.9890,-42.0000,13.8
198,PCALAT-MG013,1,0.8320,-35.0000,13.8
199,VITAT1-ES013,1,0.9960,-45.0000,13.8
200,UCAMP1-RJ000,1,0.9900,-47.0000,991.0
201,RSIL-1UTE000,1,0.9900,-47.0000,992.0
202,UCAMP2-RJ000,1,0.9900,-47.0000,991.0
203,RSIL-2UTE000,1,0.9900,-47.0000,992.0
204,ADRT1B-RJ013,1,1.0010,-45.0000,13.8
205,ADRT2A-RJ013,1,1.0010,-45.0000,13.8
206,ADRT2B-RJ013,1,1.0010,-45.0000,13.8
208,BGERT1-DF013,1,1.0100,-25.0000,13.8
209,ADRT1A-RJ013,1,1.0010,-45.0000,13.8
210,ITUMBI-MG500,1,1.0510,-11.0000,500.0
211,CAMPO2-RJ000,4,0.9890,-37.0000,991.0
212,CAMPO2-RJ013,4,0.9890,-37.0000,13.8
213,MARIMB-MG345,1,1.0230,-15.0000,345.0
214,MARIMB-MG000,1,1.0490,-16.0000,991.0
216,P.COL--MG345,1,1.0190,-16.0000,345.0
217,ITUMBI-MG345,1,1.0080,-13.0000,345.0
218,BANDEI-GO345,1,0.9750,-20.0000,345.0
219,B.SUL--DF345,1,1.0010,-19.0000,345.0
220,CORUMB-GO345,1,1.0130,-11.0000,345.0
221,B.GERA-DF034,1,1.0090,-25.0000,34.5
222,BSULT6-DF000,1,1.0070,-20.0000,991.0
223,BANDT1-GO000,1,0.9600,-22.0000,991.0
224,BANDT2-GO000,1,0.9580,-23.0000,991.0
225,ITUMBI-MG230,1,1.0380,-13.0000,230.0
226,BANDEI-GO230,1,0.9860,-22.0000,230.0
227,B.GERA-DF230,1,1.0060,-20.0000,230.0
228,B.SUL--DF230,1,1.0050,-20.0000,230.0
229,B.ALTO-GO230,1,0.9960,-26.0000,230.0
230,S.MESA-GO230,1,1.0230,-11.0000,230.0
231,R.VERD-GO230,1,1.0310,-16.0000,230.0
232,BSULT6-DF013,1,1.0070,-20.0000,13.8
233,SAMAMB-DF500,1,1.0590,-16.0000,500.0
234,SAMAMB-DF345,1,1.0020,-18.0000,345.0
235,S.MESA-GO500,1,1.0550,-13.0000,500.0
236,B.SUL--DF138,1,1.0060,-23.0000,138.0
237,SAMAMB-DF138,1,0.9960,-20.0000,138.0
238,R.VERD-GO138,1,1.0050,-18.0000,138.0
239,S.MESA-GO138,1,1.0750,-14.0000,138.0
240,RVERT1-GO000,1,1.0120,-19.0000,991.0
241,RVERT1-GO013,1,1.0030,-19.0000,13.8
...
